case6515rte_SE.m
function mpc = case6515rte_SE
%CASE6515RTE_SE

%% MATPOWER Case Format : Version 2
mpc.version = '2';

%%-----  Power Flow Data  -----%%
%% system MVA base
mpc.baseMVA = 100;

%% bus data
%	bus_i	type	Pd	Qd	Gs	Bs	area	Vm	Va	baseKV	zone	Vmax	Vmin
mpc.bus = [
	1	1	0	0	0	0	1	0.992673053	-12.8403638	45	1	1	0.888889;
	2	1	0	0	0	0	1	1.02546104	-9.78410998	63	1	1.06349	0.936508;
	3	1	14.8	3.8	0	0	1	1.00864352	-17.1827577	63	1	1.07937	0.952381;
	4	1	49.6	2.8	0	0	1	1.02422997	-30.3365086	90	1	1.08889	0.933333;
	5	1	12.9	0.9	0	0	1	1.00903346	-61.8341942	63	1	1.06349	0.952381;
	6	1	13	5.3	0	0	1	1.03039689	-21.8671146	63	1	1.07937	0.920635;
	7	1	2.3	0.2	0	0	1	1.04823977	-23.3261502	63	1	1.07937	0.920635;
	8	1	15.8	-0.3	0	0	1	1.04175443	-22.6525305	225	1	1.08889	0.888889;
	9	1	14.9	0	0	0	1	1.04155568	-20.2611849	63	1	1.06349	0.936508;
	10	1	0	0	0	0	1	1.0132689	-29.1395621	90	1	1.07778	0.922222;
	11	1	33.2	4.9	0	0	1	1.01326868	-29.1395596	90	1	1.07778	0.922222;
	12	1	0	0	0	0	1	1.01492906	-3.69060153	63	1	1.07937	0.952381;
	13	1	0	0	0	0	1	1.06112989	-5.52172836	380	1	1.10263	1.05271;
	14	1	63.2	13.3	0	30.4	1	1.05559116	-38.6797247	90	1	1.07778	0.977778;
	15	1	0	0	0	0	1	1.02066893	-25.2195205	63	1	1.07937	0.920635;
	16	1	13.9	1.9	0	0	1	1.03089961	-28.8951518	63	1	1.07937	0.920635;
	17	1	10.9	0.1	0	0	1	1.0419086	-35.4933221	90	1	1.06667	0.977778;
	18	1	0	0	0	0	1	0.938816922	-6.53255165	45	1	1	0.888889;
	19	1	1	0	0	0	1	1.0191583	-24.0776305	63	1	1.06349	0.936508;
	20	1	5.6	-18	0	0	1	0.939550372	-6.57180894	45	1	1	0.888889;
	21	1	7.6	-1.6	0	0	1	1.02352367	-23.3060459	90	1	1.06667	0.977778;
	22	1	18.5	1	0	0	1	1.00657521	-18.2390237	63	1	1.07937	0.952381;
	23	1	22.4	2.2	0	0	1	1.01974648	-11.4904546	63	1	1.06349	0.936508;
	24	1	17	-1.5	0	0	1	1.02620358	-28.890958	90	1	1.11111	0.955556;
	25	1	54.7	-1.1	0	0	1	1.06210876	-24.9280278	90	1	1.1	0.944444;
	26	1	15.1	10.6	0	0	1	1.01923141	-30.5552091	90	1	1.06667	0.977778;
	27	1	0	0	0	0	1	1.05630841	-25.6833241	225	1	1.08444	1.00444;
	28	1	0.9	-0.2	0	0	1	1.01919756	-24.3754614	63	1	1.07937	0.952381;
	29	1	76.5	9.4	0	0	1	0.992476949	-26.2673162	63	1	1.06349	0.968254;
	30	1	39.9	3.5	0	0	1	1.01607663	-29.4520467	90	1	1.08889	0.933333;
	31	1	0	0	0	0	1	1.04325949	-10.3654276	63	1	1.06349	0.936508;
	32	1	0	0	0	0	1	1.04825127	-5.16928762	150	1	1.10667	0.9;
	33	1	0	0	0	0	1	1.05862345	-7.52965935	225	1	1.08889	0.933333;
	34	1	0	0	0	0	1	1.05568978	-6.87149847	225	1	1.08889	0.933333;
	35	1	0	0	0	0	1	1.07212098	-6.26585096	380	1	1.10526	1.03947;
	36	1	0	0	0	0	1	1.07555326	-5.28439736	380	1	1.10526	1.03947;
	37	1	-2.7	3	0	0	1	1.01345584	-27.1469275	63	1	1.07937	0.920635;
	38	1	5	-1	0	0	1	1.02829837	-25.8616579	63	1	1.09524	0.936508;
	39	1	43.6	-2.9	0	0	1	1.01570694	-46.2088792	90	1	1.07778	0.977778;
	40	1	38.1	4.1	0	0	1	1.04839396	-36.8193411	90	1	1.07778	0.977778;
	41	1	0	0	0	0	1	1.05970736	-31.1585877	225	1	1.08889	1.00444;
	42	1	0	0	0	0	1	1.12316345	0.178034795	63	1	1.13099	0.952381;
	43	1	3.2	2.7	0	0	1	1.03415253	-33.0194341	90	1	1.07778	0.977778;
	44	1	13.3	0.1	0	0	1	1.02400777	-57.5161511	63	1	1.06349	0.952381;
	45	1	3.8	1.6	0	0	1	1.01408884	-40.0231001	90	1	1.06667	0.977778;
	46	1	0	0	0	0	1	1.0295612	-17.0986024	63	1	1.06349	0.936508;
	47	2	0	0	0	0	1	1.022	-13.006679	63	1	1.06349	0.936508;
	48	1	40.4	5.6	0	0	1	1.01540389	-30.4742927	90	1	1.07778	0.922222;
	49	1	9.8	-1.9	0	0	1	1.02413974	-18.4530926	63	1	1.06349	0.936508;
	50	1	0	0	0	0	1	1.06676705	-15.884426	63	1	1.06927	0.936508;
	51	1	0	0	0	0	1	1.05441946	-10.9123946	225	1	1.08889	0.933333;
	52	1	6.5	2.9	0	0	1	1.02819016	-42.0549158	90	1	1.06667	0.977778;
	53	1	0	-1.3	0	0	1	0.990894451	-33.1902967	63	1	1.04762	0.952381;
	54	1	0.3	-0.3	0	0	1	1.03197364	-22.2900686	90	1	1.06667	0.977778;
	55	1	50.9	12.3	0	0	1	1.06700841	-34.6073875	225	1	1.08889	1.00444;
	56	1	75.5	20.5	0	0	1	1.05516755	-29.8533821	225	1	1.08889	1.00444;
	57	2	0	0	0	0	1	1.058	-20.1625822	63	1	1.07937	0.920635;
	58	1	154	36.4	0	0	1	1.06686281	-34.6246611	225	1	1.08889	1.00444;
	59	1	5	1	0	0	1	1.02827765	-15.3788271	63	1	1.07937	0.952381;
	60	1	0	0	0	0	1	1.03376909	-9.96515282	63	1	1.07937	0.952381;
	61	1	46.3	11.9	0	0	1	1.0348985	-11.5535756	63	1	1.07937	0.952381;
	62	1	0	0	0	0	1	1.02055976	-9.93290622	63	1	1.07937	0.952381;
	63	1	16.8	2.9	0	0	1	1.01125339	-4.2590765	63	1	1.07937	0.952381;
	64	1	67.3	7.1	0	0	1	1.0546731	-22.3638978	225	1	1.08889	0.888889;
	65	1	12	2.8	0	0	1	1.04688111	-12.1856889	63	1	1.07937	0.952381;
	66	1	13	-6.4	0	0	1	1.0270722	-27.7589011	63	1	1.06349	0.936508;
	67	1	1	0	0	0	1	1.03945347	-23.5502184	63	1	1.07937	0.920635;
	68	1	53.1	1.1	0	0	1	1.01382376	-17.0620344	63	1	1.06349	0.936508;
	69	1	20.8	1.3	0	0	1	1.04182792	-62.4520564	63	1	1.06349	0.952381;
	70	1	10.6	4.2	0	0	1	1.02517776	-2.57642009	63	1	1.07937	0.952381;
	71	1	69.4	17.5	0	0	1	1.00979621	-33.35107	63	1	1.04762	0.952381;
	72	1	0	0	0	0	1	1.07727637	-26.6177635	225	1	1.08889	1.00444;
	73	1	0	0	0	0	1	1.07728776	-26.6170687	225	1	1.08889	1.00444;
	74	1	58.8	-5	0	0	1	1.05521642	-22.2028985	225	1	1.08889	0.888889;
	75	1	25.2	1.9	0	0	1	1.03831801	-25.8925778	90	1	1.06667	0.977778;
	76	1	5.9	-2.1	0	0	1	1.0767355	-0.73103357	225	1	1.08889	0.986667;
	77	1	43.7	0.4	0	0	1	1.01539335	-18.6742206	63	1	1.06349	0.936508;
	78	1	0	0	0	0	1	1.0381045	-26.0357435	63	1	1.07937	0.920635;
	79	1	0	0	0	0	1	1.00480897	-32.1637216	63	1	1.04762	0.952381;
	80	1	32.4	10.5	0	0	1	1.03513924	-31.7050861	225	1	1.08889	1.00444;
	81	1	32.4	9.1	0	0	1	1.03515795	-31.7050378	225	1	1.08889	1.00444;
	82	1	11.3	0.3	0	0	1	1.02513845	-19.7398709	63	1	1.06349	0.936508;
	83	1	79	24.8	0	0	1	1.04529914	-32.2810482	225	1	1.08889	1.00444;
	84	1	-0.1	0.4	0	0	1	1.01622729	-14.3037919	63	1	1.06349	0.936508;
	85	1	0.7	-1.5	0	0	1	1.04080844	-18.0937737	63	1	1.06349	0.936508;
	86	1	48.8	5.2	0	0	1	1.01614448	-49.920228	90	1	1.06667	0.977778;
	87	1	0	0	0	0	1	1.02330517	-4.28030734	63	1	1.07937	0.952381;
	88	1	14.8	-1.2	0	0	1	1.03614097	-22.0383216	63	1	1.06349	0.936508;
	89	1	26.2	0.3	0	0	1	1.02844336	-35.7545594	90	1	1.07778	0.977778;
	90	1	0.2	-2.3	0	0	1	0.942964456	-7.24730826	45	1	1	0.888889;
	91	1	0	0	0	0	1	0.938816922	-6.53255165	45	1	1	0.888889;
	92	1	31.8	1.1	0	0	1	1.00914596	-21.2539382	63	1	1.06349	0.968254;
	93	1	2	-2.8	0	0	1	0.954341187	-8.93805899	45	1	1	0.888889;
	94	1	18.2	-4	0	0	1	1.03482919	-29.3274874	90	1	1.06667	0.977778;
	95	1	57.2	9.4	0	0	1	1.02330918	-41.8900636	90	1	1.06667	0.977778;
	96	1	0.9	-0.2	0	0	1	1.05013886	-10.4657094	63	1	1.06349	0.936508;
	97	1	57.7	3.8	0	0	1	1.06376749	-23.1435125	63	1	1.07937	0.920635;
	98	1	9.5	1	0	0	1	1.01837901	-23.5948618	63	1	1.07937	0.952381;
	99	1	35.8	5.9	0	0	1	1.04200007	-11.2353692	63	1	1.07937	0.952381;
	100	1	63	7.8	0	0	1	1.01989873	-16.7169906	63	1	1.06349	0.936508;
	101	1	17.3	-0.8	0	0	1	1.00720077	-15.3953912	63	1	1.06349	0.936508;
	102	2	0	0	0	0	1	1.033	-17.5359818	63	1	1.07937	0.952381;
	103	1	12.6	-1.2	0	0	1	1.0340223	-10.2345172	63	1	1.07937	0.952381;
	104	1	0	0	0	0	1	1.06896147	-7.23857243	225	1	1.08889	0.986667;
	105	1	36.9	2.2	0	0	1	1.03585863	-20.6610718	225	1	1.08889	0.888889;
	106	1	58.2	10.7	0	0	1	1.04519922	-25.677444	90	1	1.1	0.944444;
	107	1	107	14.3	0	0	1	1.04050916	-31.5038428	225	1	1.08444	1.00889;
	108	1	12.2	-2.4	0	0	1	1.04638167	-31.1275582	90	1	1.07778	0.977778;
	109	1	67.8	8.7	0	0	1	1.03905101	-13.9603561	63	1	1.06349	0.936508;
	110	1	0	0	0	0	1	1.02643329	-9.98919251	225	1	1.08889	0.933333;
	111	1	38.7	-7.5	0	0	1	0.999939835	-23.8488886	63	1	1.06349	0.968254;
	112	1	0	0	0	0	1	1.00846719	-32.7176771	63	1	1.04762	0.952381;
	113	1	0	0	0	0	1	1.04193593	-29.0701893	225	1	1.08889	1.00444;
	114	1	13.4	1.1	0	0	1	1.05164353	-14.012465	63	1	1.06349	0.936508;
	115	1	0	0	0	0	1	1.06113909	-5.52181174	380	1	1.10526	1.05263;
	116	1	0	0	0	0	1	1.06113909	-5.52181174	380	1	1.10526	1.05263;
	117	1	14.9	0.2	0	0	1	1.01489567	-22.0528152	63	1	1.07937	0.952381;
	118	1	2	0.7	0	0	1	1.04071528	-25.5778502	90	1	1.06667	0.977778;
	119	1	40.6	6.9	0	0	1	1.00751508	-12.2861974	63	1	1.06349	0.936508;
	120	1	22	-2.3	0	0	1	1.02701827	-10.6678305	63	1	1.06349	0.936508;
	121	1	20.8	1.4	0	0	1	1.01905696	-28.4289172	63	1	1.07937	0.920635;
	122	2	0	0	0	0	1	1.026	-11.4825698	63	1	1.07937	0.952381;
	123	1	12	4.6	0	0	1	1.02345494	-11.6140582	63	1	1.07937	0.952381;
	124	1	8	-0.4	0	0	1	1.03058279	-32.03882	90	1	1.06667	0.977778;
	125	1	11.1	0.4	0	0	1	1.02451476	-17.606063	63	1	1.07937	0.952381;
	126	1	0.2	0.8	0	0	1	1.0420058	-18.1643656	63	1	1.06349	0.936508;
	127	1	14.7	2.7	0	0	1	1.00893682	-34.777836	63	1	1.04762	0.952381;
	128	1	13.8	7.2	0	0	1	1.02420697	-13.4436808	63	1	1.06349	0.968254;
	129	1	19.1	10.8	0	0	1	1.02228032	-11.677649	63	1	1.06349	0.968254;
	130	1	0	0	0	0	1	1.04938653	-10.7490942	225	1	1.08444	1.00889;
	131	1	119.3	12	0	0	1	1.0479766	-19.2901676	225	1	1.08444	1.00889;
	132	2	9.4	0	0	0	1	1.061	-17.3999228	90	1	1.07778	0.922222;
	133	1	2.7	0.4	0	0	1	0.977015673	-35.6971124	63	1	1.04762	0.952381;
	134	1	101.1	27.4	0	0	1	1.01919464	-32.3608191	225	1	1.08889	1.00444;
	135	1	0	0	0	0	1	1.06787852	-34.430454	225	1	1.08889	1.00444;
	136	1	23.9	1.4	0	0	1	1.0286017	-45.1557564	90	1	1.07778	0.977778;
	137	2	8.7	-3	0	0	1	1.021	-13.7673148	63	1	1.06349	0.968254;
	138	1	0	0	0	0	1	1.05230739	-11.8459972	150	1	1.08	0.966667;
	139	1	8	7.1	0	0	1	1.04648956	-14.9159392	63	1	1.07937	0.920635;
	140	1	0	0	0	80	1	1.07646103	-11.6882095	225	1	1.08889	1;
	141	1	0	0	0	0	1	1.08763345	-8.32186061	380	1	1.10526	1.05263;
	142	1	22.4	7.4	0	0	1	1.0322889	-14.8913926	63	1	1.07937	0.952381;
	143	1	0	0	0	0	1	1.06313798	-9.96293904	225	1	1.08889	0.986667;
	144	1	16	5	0	0	1	1.03309181	-26.8631279	90	1	1.11111	0.955556;
	145	1	23.4	9	0	0	1	1.05635444	-22.088586	225	1	1.08889	0.968889;
	146	1	0	0	0	0	1	1.07128281	-18.8727958	380	1	1.10526	1;
	147	1	30	5.5	0	0	1	1.04390747	-16.0668969	63	1	1.06349	0.936508;
	148	1	6.6	1.2	0	0	1	1.03749814	-13.2051343	63	1	1.06349	0.936508;
	149	1	16.9	4.1	0	0	1	1.03408374	-41.2168208	90	1	1.06667	0.977778;
	150	1	48.5	3.2	0	0	1	1.04112536	-10.8534807	63	1	1.06349	0.936508;
	151	1	0	0	0	0	1	0.980986545	-26.9297074	63	1	1.06349	0.968254;
	152	1	45.3	12	0	7.7	1	0.980839154	-25.6752485	63	1	1.06349	0.968254;
	153	1	27.3	-5.5	0	0	1	1.04181226	-13.2249629	63	1	1.06349	0.936508;
	154	1	0	0	0	0	1	1.06674442	-9.80020313	225	1	1.08889	0.933333;
	155	2	0	0	0	0	1	1.03406286	-20.2153641	63	1	1.07937	0.920635;
	156	1	0	0	0	0	1	0.980935917	-26.9346624	63	1	1.06349	0.968254;
	157	1	0	-2.2	0	0	1	0.935542797	-10.5302944	45	1	1	0.888889;
	158	2	0	0	0	0	1	0.959	-8.81517372	45	1	1	0.888889;
	159	1	0	0	0	0	1	1.03725795	-13.4585466	63	1	1.06349	0.936508;
	160	1	41.7	5.9	0	0	1	1.04467102	-19.1070438	225	1	1.08889	0.888889;
	161	1	43.7	10	0	0	1	1.04448642	-19.1109314	225	1	1.08889	0.888889;
	162	1	-0.3	-1.6	0	0	1	1.01339884	-30.3090276	90	1	1.06667	0.977778;
	163	1	0	0	0	0	1	1.02801672	-10.7182437	63	1	1.07937	0.952381;
	164	1	0	0	0	0	1	1.02801672	-10.7182437	63	1	1.07937	0.952381;
	165	1	16.5	14.6	0	0	1	1.05983202	-36.3081592	20	1	1.15	0.8;
	166	1	13.3	3.2	0	0	1	1.03524134	-40.7755575	90	1	1.06667	0.977778;
	167	1	17.8	-0.8	0	0	1	1.02999342	-41.2388322	90	1	1.06667	0.977778;
	168	1	0	0	0	0	1	1.05995949	-36.3017121	225	1	1.08444	1.00444;
	169	1	9.9	-0.9	0	0	1	1.01990728	-34.6444842	90	1	1.06667	0.977778;
	170	1	79.8	13.5	0	0	1	1.02344206	-35.0665954	90	1	1.07778	0.977778;
	171	1	28	0.8	0	30	1	1.04082814	-39.1212301	90	1	1.07778	0.977778;
	172	1	0	0	0	0	1	1.04692773	-34.5178659	225	1	1.08889	1.00444;
	173	1	28.5	8	0	0	1	1.0590281	-23.8231191	90	1	1.08889	0.933333;
	174	1	59.7	11.6	0	0	1	1.05612022	-26.5472916	90	1	1.11111	0.955556;
	175	1	0	0	0	0	1	1.03904928	-18.7246555	63	1	1.07937	0.920635;
	176	2	0	0	0	0	1	1.0990839	-16.9475537	150	1	1.1	0.9;
	177	1	0	0	0	0	1	1.06242188	-30.9951007	225	1	1.08889	1.00444;
	178	1	0	0	0	0	1	1.0624221	-30.9951019	225	1	1.08889	1.00444;
	179	1	0	0	0	0	1	1.00913769	-34.7636361	63	1	1.04762	0.952381;
	180	1	0	0	0	0	1	1.06242061	-30.9950938	225	1	1.08889	1.00444;
	181	1	12.7	-5.3	0	0	1	1.05536441	-25.4646998	63	1	1.07937	0.920635;
	182	1	16	3.1	0	0	1	1.03881223	-11.067495	63	1	1.06349	0.936508;
	183	1	5.5	-1.7	0	0	1	1.02470225	-22.7794203	63	1	1.07937	0.952381;
	184	1	5	1.4	0	0	1	1.06245646	-33.0990347	90	1	1.07778	0.977778;
	185	1	30.6	2.7	0	0	1	1.02299845	-15.8258521	63	1	1.07937	0.952381;
	186	1	1.2	0.2	0	0	1	1.02336192	-28.6549598	90	1	1.06667	0.977778;
	187	2	0	0	0	0	1	1.05073012	-20.4956927	63	1	1.07937	0.920635;
	188	1	0	0	0	0	1	1.09874151	-19.0592317	63	1	1.09875	0.920635;
	189	1	16.8	1.8	0	0	1	1.0371871	-24.0071098	63	1	1.07937	0.920635;
	190	2	0	0	0	0	1	0.952733632	-8.25686369	45	1	1	0.888889;
	191	1	15.4	-1.1	0	0	1	1.0202066	-34.576601	90	1	1.06667	0.977778;
	192	1	9.9	-0	0	0	1	1.05772429	-20.6353625	63	1	1.07937	0.920635;
	193	1	0.1	0.7	0	0	1	1.04211753	-29.6099825	225	1	1.08889	1.00444;
	194	2	0.7	-1.6	0	0	1	1.056	-24.8016216	63	1	1.07937	0.920635;
	195	1	0	0	0	0	1	1.04503309	-32.4537954	63	1	1.06362	0.952381;
	196	1	0	0	0	0	1	1.04503451	-32.453838	63	1	1.06362	0.952381;
	197	1	27.5	-0.6	0	15	1	1.0141897	-32.2383792	63	1	1.07937	0.920635;
	198	1	11.1	-0.8	0	0	1	1.02001475	-23.0324062	63	1	1.07937	0.920635;
	199	1	12.6	2.7	0	0	1	1.01797066	-48.3548298	90	1	1.06667	0.977778;
	200	1	0	0	0	0	1	1.08350696	-23.0853669	225	1	1.08889	1;
...
];

%%  PMU voltage data (confidence intervals around measurements)
%	bus_i	VR_MAX	VR_MIN	VI_MAX	VI_MIN
mpc.Vpmu = [
	4	0.884688	0.883302	-0.516923	-0.517631;
	5	0.476289	0.476289	-0.889549	-0.889549;
	6	0.95697	0.955518	-0.383507	-0.384014;
	9	0.977827	0.976371	-0.36042	-0.360977;
	10	0.885026	0.885026	-0.4934	-0.4934;
	12	1.01282	1.01282	-0.0653296	-0.0653296;
	14	0.824049	0.824049	-0.659709	-0.659709;
	17	0.848304	0.848304	-0.604941	-0.604941;
	20	0.933377	0.933377	-0.10753	-0.10753;
	25	0.96392	0.962398	-0.447343	-0.447936;
	26	0.878316	0.877063	-0.517783	-0.518558;
	27	0.951949	0.951949	-0.457801	-0.457801;
	30	0.885428	0.884233	-0.499266	-0.499964;
	37	0.901813	0.901813	-0.462413	-0.462413;
	41	0.906832	0.906832	-0.548302	-0.548302;
	43	0.867747	0.866477	-0.563166	-0.563875;
	48	0.875761	0.87449	-0.514552	-0.515325;
	50	1.02603	1.02603	-0.291972	-0.291972;
	51	1.03614	1.03467	-0.199453	-0.199754;
	53	0.82975	0.828678	-0.542076	-0.54284;
	55	0.878215	0.878215	-0.606007	-0.606007;
	61	1.01393	1.01393	-0.207274	-0.207274;
	70	1.02414	1.02414	-0.0460836	-0.0460836;
	71	0.843501	0.843501	-0.555153	-0.555153;
	73	0.963118	0.963118	-0.482652	-0.482652;
	77	0.961937	0.961937	-0.325116	-0.325116;
	86	0.654753	0.653731	-0.776911	-0.778115;
	88	0.960433	0.960433	-0.388788	-0.388788;
	91	0.932722	0.932722	-0.106807	-0.106807;
	97	0.978159	0.978159	-0.418098	-0.418098;
	101	0.971059	0.971059	-0.26739	-0.26739;
	106	0.941983	0.941983	-0.452889	-0.452889;
	109	1.00836	1.00836	-0.250672	-0.250672;
	111	0.91456	0.91456	-0.404302	-0.404302;
	116	1.05622	1.05622	-0.102108	-0.102108;
	121	0.896167	0.896167	-0.485141	-0.485141;
	122	1.00546	1.00546	-0.204246	-0.204246;
	136	0.725351	0.725351	-0.729306	-0.729306;
	138	1.0299	1.0299	-0.21602	-0.21602;
	143	1.04711	1.04711	-0.183935	-0.183935;
	145	0.978822	0.978822	-0.397231	-0.397231;
	147	1.00313	1.00313	-0.288911	-0.288911;
	149	0.77786	0.77786	-0.681368	-0.681368;
	150	1.0225	1.0225	-0.196042	-0.196042;
	152	0.883995	0.883995	-0.424968	-0.424968;
	153	1.01418	1.01418	-0.238341	-0.238341;
	155	0.970365	0.970365	-0.35732	-0.35732;
	158	0.947672	0.947672	-0.146964	-0.146964;
	164	1.01008	1.01008	-0.19119	-0.19119;
	165	0.854059	0.854059	-0.627556	-0.627556;
	168	0.854233	0.854233	-0.627536	-0.627536;
	178	0.91072	0.91072	-0.54711	-0.54711;
	187	0.984217	0.984217	-0.367899	-0.367899;
	192	0.989863	0.989863	-0.372762	-0.372762;
	193	0.906684	0.905379	-0.514542	-0.515289;
	203	0.98217	0.98217	-0.382053	-0.382053;
	204	1.01286	1.01286	-0.321792	-0.321792;
	210	0.952895	0.951657	-0.309413	-0.309843;
	213	0.996607	0.995279	-0.319416	-0.319852;
	219	0.882289	0.882289	-0.564198	-0.564198;
	220	1.02018	1.02018	-0.0767959	-0.0767959;
	221	0.971793	0.970495	-0.358344	-0.358891;
	222	1.04029	1.03878	-0.316353	-0.31679;
	228	0.408292	0.407735	-0.913557	-0.914808;
	229	0.989109	0.989109	-0.382147	-0.382147;
	230	1.00416	1.00416	-0.320593	-0.320593;
	232	0.974481	0.973101	-0.309552	-0.310026;
	233	0.990667	0.989378	-0.364082	-0.364636;
	236	0.903226	0.903226	-0.498407	-0.498407;
	239	0.408229	0.407709	-0.940067	-0.941444;
	242	0.873486	0.872282	-0.470338	-0.470997;
	245	0.884893	0.883693	-0.513951	-0.514641;
	246	1.01965	1.01812	-0.106152	-0.106284;
	256	0.967482	0.967482	-0.400234	-0.400234;
	263	0.976113	0.976113	-0.352846	-0.352846;
	264	1.02192	1.02192	-0.252914	-0.252914;
	267	0.878196	0.878196	-0.546393	-0.546393;
	269	0.855994	0.855994	-0.528567	-0.528567;
	274	0.946069	0.946069	-0.470794	-0.470794;
	282	1.01886	1.01886	-0.106216	-0.106216;
	297	0.924924	0.924924	-0.375827	-0.375827;
	299	0.999863	0.998405	-0.346064	-0.346564;
	306	0.944685	0.944685	-0.346336	-0.346336;
	307	0.653628	0.653628	-0.757239	-0.757239;
	318	0.839748	0.838501	-0.549915	-0.550634;
	320	0.952233	0.950903	-0.42912	-0.429761;
	330	0.94479	0.94479	-0.462201	-0.462201;
	331	0.99249	0.99249	-0.393484	-0.393484;
	332	0.84657	0.845306	-0.597179	-0.598026;
	339	0.922555	0.921174	-0.458098	-0.458711;
	340	0.886214	0.884949	-0.550239	-0.551015;
	341	0.968556	0.968556	-0.454251	-0.454251;
	342	0.968168	0.968168	-0.308846	-0.308846;
	353	0.815712	0.814626	-0.578599	-0.579439;
	357	0.943616	0.943616	-0.312609	-0.312609;
	359	0.899058	0.899058	-0.460443	-0.460443;
	360	0.946942	0.945564	-0.443749	-0.444368;
	361	1.00328	1.00195	-0.386938	-0.38745;
	363	0.970046	0.96866	-0.42799	-0.428598;
	366	1.04722	1.04722	-0.125517	-0.125517;
	370	0.857418	0.857418	-0.548074	-0.548074;
	371	1.00827	1.00827	-0.075934	-0.075934;
	372	1.0381	1.0381	-0.11141	-0.11141;
	373	0.878483	0.878483	-0.605925	-0.605925;
	374	0.431432	0.430825	-0.890438	-0.891827;
	375	0.742325	0.741354	-0.68939	-0.690337;
	377	0.959176	0.959176	-0.279662	-0.279662;
	385	1.00943	1.00802	-0.154502	-0.154734;
	386	1.01233	1.01233	-0.362094	-0.362094;
	389	0.990243	0.990243	-0.305644	-0.305644;
	392	0.865708	0.865708	-0.49777	-0.49777;
	395	0.935232	0.935232	-0.438314	-0.438314;
	396	1.02992	1.02992	-0.16266	-0.16266;
	397	0.908696	0.908696	-0.489444	-0.489444;
	398	0.759557	0.759557	-0.684905	-0.684905;
	410	0.720347	0.720347	-0.725634	-0.725634;
	411	0.833163	0.833163	-0.596145	-0.596145;
	412	0.992309	0.990762	-0.2079	-0.208197;
	413	0.474174	0.473517	-0.91437	-0.915716;
	414	0.945013	0.945013	-0.336171	-0.336171;
	417	0.8773	0.8773	-0.542617	-0.542617;
	424	1.02492	1.02492	-0.118898	-0.118898;
	425	1.06338	1.06338	-0.0570614	-0.0570614;
	432	0.774573	0.773476	-0.671362	-0.672233;
	441	0.991207	0.991207	-0.2589	-0.2589;
	445	0.954393	0.954393	-0.487357	-0.487357;
	449	1.08578	1.08433	0.0170607	0.0170363;
	458	0.901089	0.901089	-0.52457	-0.52457;
	459	0.920607	0.919466	-0.474581	-0.475164;
	461	1.0074	1.0074	-0.148682	-0.148682;
	462	0.493858	0.493174	-0.918725	-0.919969;
	464	1.06562	1.06562	-0.497415	-0.497415;
	465	0.936219	0.936219	-0.465672	-0.465672;
	470	0.991926	0.990533	-0.343908	-0.344375;
	481	1.02121	1.0198	-0.169699	-0.169943;
	482	0.967909	0.966497	-0.226164	-0.226468;
	484	0.879301	0.879301	-0.531378	-0.531378;
	492	0.95077	0.949298	-0.371046	-0.371557;
	499	1.08569	1.08569	0.0191064	0.0191064;
	501	1.08993	1.08993	0.0416206	0.0416206;
	502	0.799824	0.799824	-0.646474	-0.646474;
	504	0.906272	0.905057	-0.496226	-0.496905;
	505	0.951599	0.951599	-0.431454	-0.431454;
	508	0.971478	0.970278	-0.323353	-0.323756;
	517	0.874873	0.873776	-0.510303	-0.510968;
	526	0.996646	0.996646	-0.214546	-0.214546;
	527	1.05201	1.05201	-0.137833	-0.137833;
	528	0.97143	0.970176	-0.287153	-0.287526;
	534	0.833551	0.833551	-0.538489	-0.538489;
	535	0.926313	0.926313	-0.485147	-0.485147;
	536	0.973359	0.973359	-0.407607	-0.407607;
	540	0.984702	0.983325	-0.404635	-0.405201;
	542	1.03086	1.03086	-0.197948	-0.197948;
	548	0.985824	0.985824	-0.326983	-0.326983;
	550	0.970072	0.970072	-0.388591	-0.388591;
	554	1.03031	1.02893	-0.0646509	-0.0647374;
	557	0.996545	0.996545	-0.38528	-0.38528;
	558	0.925565	0.925565	-0.522639	-0.522639;
	566	0.632825	0.632825	-0.80154	-0.80154;
	576	0.985844	0.985844	-0.375382	-0.375382;
	578	0.87525	0.87525	-0.509308	-0.509308;
	581	1.01762	1.01762	-0.273306	-0.273306;
	583	0.844284	0.844284	-0.552508	-0.552508;
	585	0.976074	0.976074	-0.135643	-0.135643;
	591	0.636348	0.636348	-0.79512	-0.79512;
	595	1.06918	1.06918	-0.225441	-0.225441;
	599	0.819936	0.819936	-0.593288	-0.593288;
	600	0.87622	0.87622	-0.528029	-0.528029;
	604	0.602631	0.602631	-0.859324	-0.859324;
	606	0.602632	0.602632	-0.859332	-0.859332;
	609	0.821155	0.819951	-0.561627	-0.562337;
	611	1.01021	1.00878	-0.176113	-0.176379;
	612	0.826036	0.824864	-0.559846	-0.560692;
	614	0.820353	0.820353	-0.554591	-0.554591;
	620	0.843294	0.843294	-0.552046	-0.552046;
	626	0.984593	0.984593	-0.252172	-0.252172;
	629	0.957085	0.957085	-0.431941	-0.431941;
	643	1.06223	1.06061	-0.248483	-0.248822;
	645	1.06141	1.06141	-0.24868	-0.24868;
	648	0.992443	0.992443	-0.194947	-0.194947;
	651	0.841222	0.841222	-0.595435	-0.595435;
	653	0.96602	0.964708	-0.32942	-0.329884;
	658	0.937459	0.937459	-0.463858	-0.463858;
	660	1.02236	1.02236	-0.187953	-0.187953;
	666	0.61171	0.61171	-0.78475	-0.78475;
	667	0.970129	0.970129	-0.42544	-0.42544;
	671	1.07821	1.07821	-0.0533617	-0.0533617;
	677	0.977537	0.977537	-0.270262	-0.270262;
	685	0.942723	0.942723	-0.459904	-0.459904;
	686	0.774388	0.774388	-0.645163	-0.645163;
	690	1.06115	1.06115	-0.181922	-0.181922;
	691	0.919551	0.919551	-0.356907	-0.356907;
	695	0.986575	0.98525	-0.345146	-0.345612;
	696	0.873715	0.873715	-0.549857	-0.549857;
	697	0.900647	0.900647	-0.464828	-0.464828;
	699	1.01789	1.01789	-0.237941	-0.237941;
	701	0.940982	0.939689	-0.443515	-0.444155;
	703	1.01111	1.01111	-0.0764697	-0.0764697;
	707	0.774731	0.774731	-0.669275	-0.669275;
	710	0.94995	0.94995	-0.158001	-0.158001;
...
];

%% PMU current injection data (confidence intervals around measurements)
%	bus_i	IR_MAX	IR_MIN	II_MAX	II_MIN
mpc.Ipmu = [
	4	-0.403874	-0.404441	0.268374	0.267996;
	5	-0.0524828	-0.0524828	0.116917	0.116917;
	6	-0.0978519	-0.0979948	0.0948004	0.094651;
	9	-0.1341	-0.1343	0.0495741	0.0495038;
	10	     0	0	     0	0;
	12	     0	0	     0	0;
	14	-0.388646	-0.388646	0.472537	0.472537;
	17	-0.0846191	-0.0846191	0.0615222	0.0615222;
	20	-0.0811375	-0.0811375	-0.183501	-0.183501;
	25	-0.469208	-0.469806	0.206938	0.206654;
	26	-0.0746629	-0.0747632	0.164981	0.164764;
	27	     0	0	     0	0;
	30	-0.324742	-0.325249	0.223246	0.22294;
	37	0.0372131	0.0372131	0.0141849	0.0141849;
	41	     0	0	     0	0;
	43	-0.0117106	-0.0117277	0.0387793	0.0387279;
	48	-0.314747	-0.315188	0.249479	0.249132;
	50	     0	0	     0	0;
	51	7.91565e-10	-7.16572e-10	6.52499e-10	-6.79005e-10;
	53	-0.00717658	-0.00718698	-0.0109724	-0.0109879;
	55	-0.327159	-0.327159	0.365811	0.365811;
	61	-0.415292	-0.415292	0.202262	0.202262;
	70	-0.101451	-0.101451	0.045575	0.045575;
	71	-0.478811	-0.478811	0.5226	0.5226;
	73	     0	0	     0	0;
	77	-0.406456	-0.406456	0.141532	0.141532;
	86	-0.269888	-0.270243	0.400658	0.400104;
	88	-0.136747	-0.136747	0.0428613	0.0428613;
	91	     0	0	     0	0;
	97	-0.48472	-0.48472	0.246034	0.246034;
	101	-0.167708	-0.167708	0.0379416	0.0379416;
	106	-0.457485	-0.457485	0.333541	0.333541;
	109	-0.613045	-0.613045	0.238677	0.238677;
	111	-0.384304	-0.384304	0.0878833	0.0878833;
	116	     0	0	     0	0;
	121	-0.172956	-0.172956	0.109252	0.109252;
	122	0.0537979	0.0537979	-0.0372497	-0.0372497;
	136	-0.154202	-0.154202	0.174343	0.174343;
	138	     0	0	     0	0;
	143	     0	0	     0	0;
	145	-0.17322	-0.17322	0.162244	0.162244;
	147	-0.261575	-0.261575	0.130164	0.130164;
	149	-0.0968104	-0.0968104	0.13751	0.13751;
	150	-0.451722	-0.451722	0.117903	0.117903;
	152	-0.36324	-0.36324	0.31037	0.31037;
	153	-0.267171	-0.267171	0.00855645	0.00855645;
	155	     0	0	     0	0;
	158	0.158372	0.158372	-0.106932	-0.106932;
	164	     0	0	     0	0;
	165	-0.0438877	-0.0438877	0.203197	0.203197;
	168	     0	0	     0	0;
	178	     0	0	     0	0;
	187	     0	0	     0	0;
	192	-0.00645882	-0.00645882	0.00243226	0.00243226;
	193	0.00248648	0.00248281	0.0063186	0.00630963;
	203	-0.240194	-0.240194	0.131104	0.131104;
	204	     0	0	     0	0;
	210	-0.374414	-0.374951	0.188131	0.187851;
	213	7.09907e-10	-7.53784e-10	6.23767e-10	-7.58647e-10;
	219	-0.114501	-0.114501	0.0176829	0.0176829;
	220	-0.141688	-0.141688	0.0449736	0.0449736;
	221	-0.140468	-0.140661	-0.018104	-0.018132;
	222	6.03723e-10	-6.93056e-10	6.85625e-10	-7.24256e-10;
	228	-0.0625703	-0.0626682	0.0913498	0.0912106;
	229	-0.122558	-0.122558	-0.0031998	-0.0031998;
	230	     0	0	     0	0;
	232	-0.0668035	-0.0668955	0.0223097	0.0222791;
	233	7.44308e-10	-7.79333e-10	6.6438e-10	-7.63981e-10;
	236	-0.238049	-0.238049	0.142429	0.142429;
	239	-0.170551	-0.170761	0.499244	0.498554;
	242	-0.457363	-0.458013	0.345569	0.345042;
	245	-0.126495	-0.126677	0.0487746	0.0487142;
	246	-0.125343	-0.125517	0.0867555	0.086624;
	256	0.190518	0.190518	0.0232936	0.0232936;
	263	     0	0	     0	0;
	264	     0	0	     0	0;
	267	-0.479403	-0.479403	0.442888	0.442888;
	269	-0.19047	-0.19047	0.130464	0.130464;
	274	-0.423362	-0.423362	0.306866	0.306866;
	282	     0	0	     0	0;
	297	-0.0204445	-0.0204445	0.0029014	0.0029014;
	299	0.000309921	0.000309468	0.000894132	0.000892928;
	306	-0.139068	-0.139068	0.0393401	0.0393401;
	307	-0.157949	-0.157949	0.146268	0.146268;
	318	-0.0878708	-0.0880017	0.11495	0.114794;
	320	-0.308721	-0.309138	0.167904	0.16768;
	330	-0.689494	-0.689494	0.418807	0.418807;
	331	     0	0	     0	0;
	332	-0.0775126	-0.0776129	0.044188	0.0441278;
	339	-0.149942	-0.150156	0.0866056	0.0864829;
	340	-0.200027	-0.20028	0.135848	0.135641;
	341	-0.107636	-0.107636	-0.0599925	-0.0599925;
	342	-0.135054	-0.135054	0.0234576	0.0234576;
	353	-0.336101	-0.336545	0.11383	0.113666;
	357	-0.132784	-0.132784	0.069424	0.069424;
	359	-0.297511	-0.297511	0.185735	0.185735;
	360	-0.452407	-0.453009	0.271828	0.27148;
	361	6.82875e-10	-7.56535e-10	6.36857e-10	-6.48774e-10;
	363	-0.0710023	-0.0711019	0.0727027	0.0726044;
	366	     0	0	     0	0;
	370	-0.421635	-0.421635	0.435128	0.435128;
	371	-0.116413	-0.116413	0.0345539	0.0345539;
	372	     0	0	     0	0;
	373	-0.15323	-0.15323	0.188786	0.188786;
	374	-0.0848174	-0.0849282	0.247528	0.247184;
	375	-0.122818	-0.122977	0.114352	0.114192;
	377	-0.051209	-0.051209	0.0389096	0.0389096;
	385	-0.167667	-0.167906	0.127928	0.127736;
	386	-0.373789	-0.373789	0.222603	0.222603;
	389	-0.262831	-0.262831	0.0972818	0.0972818;
	392	-0.248976	-0.248976	0.16164	0.16164;
	395	-0.368541	-0.368541	0.219771	0.219771;
	396	     0	0	     0	0;
	397	-0.121918	-0.121918	0.0392562	0.0392562;
	398	-0.0342463	-0.0342463	0.0598447	0.0598447;
	410	-0.137062	-0.137062	0.153339	0.153339;
	411	-0.160614	-0.160614	0.074114	0.074114;
	412	-0.260898	-0.261297	-0.0571127	-0.0571989;
	413	-0.143955	-0.144161	0.242483	0.242176;
	414	0.00409143	0.00409143	-0.000397262	-0.000397262;
	417	-0.122515	-0.122515	0.137329	0.137329;
	424	     0	0	     0	0;
	425	     0	0	     0	0;
	432	-0.206772	-0.207075	0.148694	0.148485;
	441	-0.0177328	-0.0177328	0.0248092	0.0248092;
	445	-0.184286	-0.184286	0.168498	0.168498;
	449	6.92625e-10	-7.2719e-10	7.81218e-10	-6.01811e-10;
	458	     0	0	     0	0;
	459	7.76874e-10	-7.40528e-10	6.43213e-10	-7.74983e-10;
	461	-0.13346	-0.13346	0.0306166	0.0306166;
	462	-0.191789	-0.192073	0.274624	0.274205;
	464	0.0373802	0.0373802	-0.0678846	-0.0678846;
	465	     0	0	     0	0;
	470	-0.0125957	-0.0126131	0.00437881	0.00437272;
	481	7.26748e-10	-6.35083e-10	6.79128e-10	-7.34417e-10;
	482	-0.153235	-0.15345	0.047287	0.047215;
	484	-0.425282	-0.425282	0.278614	0.278614;
	492	-0.222921	-0.223245	0.0756531	0.0755492;
	499	     0	0	     0	0;
	501	     0	0	     0	0;
	502	-0.195906	-0.195906	0.119587	0.119587;
	504	7.41905e-10	-7.14534e-10	7.65509e-10	-7.90962e-10;
	505	     0	0	     0	0;
	508	6.21312e-10	-7.07555e-10	6.32462e-10	-7.29575e-10;
	517	-0.295424	-0.295827	0.246011	0.245691;
	526	-0.0150118	-0.0150118	0.209925	0.209925;
	527	     0	0	     0	0;
	528	7.7875e-10	-7.01963e-10	7.99445e-10	-7.82862e-10;
	534	-0.20674	-0.20674	0.147954	0.147954;
	535	     0	0	     0	0;
	536	     0	0	     0	0;
	540	-0.0907904	-0.0909113	0.0262256	0.0261871;
	542	-0.4981	-0.4981	0.16937	0.16937;
	548	     0	0	     0	0;
	550	     0	0	     0	0;
	554	7.09883e-10	-6.40512e-10	7.30483e-10	-7.22814e-10;
	557	-0.566205	-0.566205	0.232952	0.232952;
	558	-0.299214	-0.299214	0.139786	0.139786;
	566	-0.165854	-0.165854	0.320687	0.320687;
	576	-0.073909	-0.073909	0.0190133	0.0190133;
	578	-0.0589224	-0.0589224	0.0617077	0.0617077;
	581	     0	0	     0	0;
	583	-0.00879195	-0.00879195	-0.0670088	-0.0670088;
	585	-0.209477	-0.209477	0.0629195	0.0629195;
	591	-0.178834	-0.178834	0.138595	0.138595;
	595	     0	0	     0	0;
	599	-0.0608181	-0.0608181	0.0659596	0.0659596;
	600	     0	0	     0	0;
	604	     0	0	     0	0;
	606	     0	0	     0	0;
	609	-0.00875683	-0.00876975	0.0352744	0.0352271;
	611	7.25643e-10	-6.19275e-10	6.59666e-10	-7.43181e-10;
	612	-0.308205	-0.308582	0.224017	0.223704;
	614	-0.0861018	-0.0861018	0.0691791	0.0691791;
	620	-0.0189554	-0.0189554	0.0290103	0.0290103;
	626	-0.0950686	-0.0950686	0.0253644	0.0253644;
	629	     0	0	     0	0;
	643	7.96563e-10	-6.75569e-10	7.68009e-10	-6.12983e-10;
	645	     0	0	     0	0;
	648	-0.123039	-0.123039	0.0866409	0.0866409;
	651	-0.26246	-0.26246	0.154867	0.154867;
	653	-0.384708	-0.385235	0.219672	0.219349;
	658	-0.295929	-0.295929	0.21683	0.21683;
	660	     0	0	     0	0;
	666	-0.23383	-0.23383	0.389887	0.389887;
	667	-0.0564903	-0.0564903	-0.128815	-0.128815;
	671	     0	0	     0	0;
	677	-0.266329	-0.266329	0.0061161	0.0061161;
	685	-0.141964	-0.141964	0.0416769	0.0416769;
	686	-0.608185	-0.608185	0.745593	0.745593;
	690	0.0303674	0.0303674	-0.00426376	-0.00426376;
	691	0.000366827	0.000366827	0.00094511	0.00094511;
	695	-0.119857	-0.120027	-0.00362453	-0.00362937;
	696	     0	0	     0	0;
	697	-0.378116	-0.378116	0.246222	0.246222;
	699	     0	0	     0	0;
	701	7.15446e-10	-7.85763e-10	7.30147e-10	-6.20025e-10;
	703	0.549963	0.549963	0.0898927	0.0898927;
	707	-0.236238	-0.236238	0.361555	0.361555;
	710	-0.103854	-0.103854	-0.0801031	-0.0801031;
...
];

%% RTU injection data (confidence intervals around measurements)
%	bus_i	P_MIN	P_MAX	Q_MIN	Q_MAX	V_MIN	V_MAX
mpc.RTU = [
	3	-0.152982	-0.143096346	-0.0393601	-0.0367774066	1.00461458	1.01247852;
	7	-0.0237219	-0.0222997463	-0.00207904	-0.00192898652	1.0445571	1.05201412;
	8	-0.163746	-0.152201598	0.00289736	0.00311714338	1.03778511	1.04586829;
	11	-0.342398	-0.319891967	-0.0506326	-0.0473319708	1.00970179	1.01701382;
	16	-0.143865	-0.134682215	-0.0195806	-0.0182811664	1.02703702	1.03494346;
	19	-0.0103162	-0.00966305238	-3.42152e-08	3.31891375e-08	1.01591186	1.02252967;
	21	-0.078452	-0.0729995118	0.0154856	0.0165703717	1.02030931	1.02696052;
	22	-0.192076	-0.179246501	-0.0103137	-0.00960562857	1.00343278	1.01009094;
	23	-0.232026	-0.215557724	-0.0227088	-0.0212266132	1.016603	1.02284414;
	24	-0.176717	-0.163562158	0.0144876	0.0154862989	1.02298814	1.02946265;
	28	-0.00935993	-0.00867910776	0.00192565	0.00207384928	1.01613566	1.02240808;
	29	-0.793011	-0.736861522	-0.096865	-0.0904059506	0.989004139	0.996251221;
	38	-0.0516757	-0.048434667	0.00960916	0.0103119051	1.02507928	1.03140586;
	39	-0.452849	-0.419328531	0.0280497	0.0299056634	1.01247035	1.01962859;
	40	-0.394324	-0.369334657	-0.0426105	-0.039426349	1.04493151	1.05257044;
	44	-0.137954	-0.127842872	-0.00103314	-0.000965552805	1.02077957	1.02732133;
	45	-0.0395035	-0.0365429191	-0.0165641	-0.0155013645	1.01077226	1.01728619;
	47	 0.348911	0.375075168	  -0.2561	-0.23901536	1.01890946	1.02599165;
	49	-0.101615	-0.0945479232	0.0184253	0.019688944	1.02053422	1.02815852;
	52	-0.0670603	-0.0629888692	-0.0300613	-0.0278890079	1.02508428	1.03158189;
	54	-0.00309547	-0.00288770699	0.00290283	0.00310465053	1.02864554	1.03515895;
	56	 -0.78454	-0.726377641	-0.211788	-0.198025475	1.05162246	1.05836118;
	57	0.0456347	0.0491212539	0.0133473	0.0143323814	1.05449795	1.06161088;
	58	 -1.60115	-1.48678457	 -0.37589	-0.352249356	1.06355505	1.07008937;
	59	-0.0519983	-0.0482495542	-0.0103369	-0.00965780926	1.0243839	1.03198301;
	63	-0.174271	-0.16289535	-0.0299114	-0.028029427	1.00748016	1.01484056;
	64	-0.695547	-0.649758101	-0.0735527	-0.0684702538	1.05141137	1.05838143;
	65	-0.123742	-0.11599314	-0.0289322	-0.0269673164	1.04299896	1.05028521;
	66	 -0.13412	-0.124935424	0.0615931	0.0660193363	1.02336698	1.03080395;
	67	-0.0103463	-0.00965663117	-3.31543e-08	3.88788729e-08	1.03561392	1.04300806;
	68	-0.549874	-0.511711071	-0.0114002	-0.0105641388	1.01057348	1.01729887;
	69	-0.215834	-0.199939786	-0.013518	-0.0126029443	1.03771161	1.04565663;
	74	-0.606511	-0.566328042	0.0480322	0.0517567369	1.05154812	1.05904756;
	75	-0.259988	-0.243756209	-0.0196854	-0.0182923833	1.03433185	1.04149776;
	76	-0.0609933	-0.0568157958	0.0203438	0.0216861023	1.07256132	1.08020521;
	80	-0.335573	-0.312921388	-0.109171	-0.100926501	1.03158136	1.03827435;
	81	-0.336139	-0.314148044	-0.0945901	-0.0877480438	1.03202842	1.03851549;
	82	-0.117082	-0.109581562	-0.0030901	-0.00290382682	1.0213592	1.02876599;
	83	-0.815006	-0.764982237	-0.256467	-0.238204205	1.04151869	1.04844077;
	84	0.000960419	0.00103180583	-0.00415273	-0.00386030219	1.0126112	1.01930743;
	85	-0.00727967	-0.00673353122	0.0144169	0.015466764	1.03753931	1.04462357;
	89	-0.271349	-0.252296234	-0.00309132	-0.00288172526	1.02531293	1.03220936;
	90	-0.00207359	-0.00193985973	0.0222585	0.023894668	0.939313263	0.945875757;
	92	-0.329267	-0.308017539	-0.0114022	-0.0105772598	1.00533925	1.01313014;
	93	-0.0206574	-0.0192984282	0.0269358	0.0289875916	0.950932148	0.957442694;
	94	-0.189073	-0.17504702	0.0386279	0.041338901	1.03160872	1.03834687;
	95	-0.589857	-0.553713165	-0.0968926	-0.0908676346	1.02019613	1.02727257;
	96	-0.0093474	-0.00869778625	0.00192642	0.00206791152	1.04603245	1.05410527;
	98	-0.0986143	-0.0915149541	-0.0103695	-0.00965384164	1.01522089	1.02241512;
	99	-0.371977	-0.345502973	-0.0612338	-0.0568224505	1.03833883	1.04515472;
	100	-0.651947	-0.608863014	-0.0810079	-0.0752928602	1.0166031	1.02311623;
	102	 0.164837	0.177667571	-0.000614152	-0.00057044153	1.02976367	1.03643391;
	103	-0.129953	-0.12130167	0.0116276	0.0123811575	1.03026419	1.03792676;
	105	-0.382892	-0.35599221	-0.0228652	-0.0212419786	1.03267362	1.039401;
	107	 -1.10349	-1.03063663	-0.147317	-0.137432848	1.03644203	1.04366088;
	108	-0.126797	-0.117958533	0.0231096	0.0249274316	1.04290294	1.05024903;
	114	-0.138081	-0.129056311	-0.0113337	-0.0105681085	1.04835388	1.05528662;
	117	-0.154867	-0.143999007	-0.00207329	-0.0019366335	1.0110199	1.01810078;
	118	-0.0206726	-0.0192436481	-0.00727271	-0.00678330443	1.03715835	1.04469657;
	119	 -0.42201	-0.392494512	-0.071388	-0.0663502521	1.00438926	1.01128513;
	120	-0.228793	-0.213144367	0.0222152	0.0237656739	1.02321276	1.03071526;
	123	-0.123775	-0.116259509	-0.0475726	-0.0442250594	1.0200722	1.02691954;
	124	-0.0827388	-0.0770096841	0.00385817	0.0041534695	1.0270031	1.03439757;
	125	-0.0493467	-0.0459362122	-0.00415913	-0.00386508437	1.02068784	1.02804982;
	126	-0.00206091	-0.00193035796	-0.00824558	-0.00773999494	1.03796092	1.04522329;
	127	-0.152598	-0.141810395	-0.0278196	-0.0261474396	1.00553782	1.01204956;
	128	-0.142452	-0.133539327	-0.0746553	-0.06981124	1.02083914	1.02788805;
	129	-0.198413	-0.184391447	-0.111426	-0.103984152	1.01868088	1.02609471;
	131	  -1.2297	-1.14572845	-0.123672	-0.115655453	1.04440591	1.05126467;
	132	0.0281181	0.0300236318	-0.00850486	-0.00792721974	1.05738072	1.06460646;
	133	-0.0279456	-0.0261811106	-0.00414788	-0.00387497154	0.974076774	0.980386641;
	134	 -1.05093	-0.974250594	-0.284469	-0.264057121	1.01568133	1.02326142;
	137	-0.0153902	-0.0143676483	0.00940683	0.0101592391	1.01785967	1.02431895;
	139	-0.082734	-0.0768902992	-0.0737287	-0.068733763	1.04289412	1.04998942;
	142	-0.232927	-0.216812869	-0.0765268	-0.0714847662	1.02911448	1.03602631;
	144	-0.165025	-0.154569372	-0.0518692	-0.0480099923	1.0296987	1.03676213;
	148	-0.068316	-0.0639742043	-0.0124314	-0.0115860627	1.03415714	1.04140945;
	157	-3.27872e-08	3.1387151e-08	0.0212604	0.0228083768	0.932219847	0.939220491;
	160	-0.433238	-0.400757198	-0.0609548	-0.0567270404	1.04056931	1.04783814;
	161	 -0.45103	-0.422801228	  -0.1035	-0.0966798632	1.04059865	1.04789014;
	162	0.00288168	0.00309420422	0.0154292	0.0165208614	1.00999589	1.01647456;
	166	-0.138195	-0.128705205	-0.0330633	-0.0310121344	1.03138019	1.03853105;
	167	-0.183468	-0.17172333	0.0077566	0.00824598281	1.02588955	1.0333888;
	169	-0.102481	-0.0953868592	0.00868506	0.0093492729	1.01654056	1.0237923;
	170	-0.822955	-0.7704966	-0.139464	-0.129766736	1.02001035	1.02697877;
	171	-0.291032	-0.271419013	-0.00830969	-0.00772352109	1.03768159	1.04432755;
	173	-0.293746	-0.275441437	-0.0828094	-0.0770551141	1.05509878	1.06247234;
	174	 -0.61904	-0.578828634	-0.119816	-0.11167524	1.05199112	1.05969628;
	181	-0.131757	-0.122155347	0.0511137	0.0549089629	1.05170278	1.05878;
	182	-0.165316	-0.154640852	 -0.03223	-0.0298005373	1.03540154	1.04282803;
	183	-0.0567732	-0.0531298968	0.0163954	0.0175219417	1.02090904	1.02856981;
	184	-0.0517723	-0.0480388791	-0.014426	-0.0135293298	1.05825426	1.06659838;
	185	-0.317917	-0.29391559	-0.027822	-0.02611544	1.01899461	1.02613933;
	186	-0.0124485	-0.0115449012	-0.00206516	-0.00192056371	1.01980815	1.02647763;
	189	-0.174421	-0.162660443	-0.0185783	-0.0172972355	1.03407123	1.04080837;
	191	-0.159894	-0.148880943	0.0105779	0.011389011	1.01693187	1.02381331;
	194	0.00134483	0.00145468052	 0.077085	0.0827064065	1.05211242	1.05974632;
	197	-0.285389	-0.265276306	0.00580329	0.00621698215	1.01094394	1.01821491;
	198	-0.114453	-0.107454004	0.00775799	0.00828957081	1.01665545	1.02324127;
	199	-0.130141	-0.121388639	-0.0280771	-0.026014433	1.01437881	1.02185764;
	201	-0.837296	-0.782727167	-0.264752	-0.246074592	1.02908864	1.03589703;
	202	-0.513561	-0.481427212	-0.0206388	-0.0192202663	0.985672009	0.992833433;
	206	-0.563275	-0.522880611	-0.102105	-0.0953344583	0.997752948	1.0047383;
	207	-0.352294	-0.32737341	-0.0464601	-0.0432477395	0.995167272	1.00275483;
	208	 -0.17178	-0.159623023	0.00773839	0.00830963432	1.02679639	1.03395439;
	209	-0.0227348	-0.0212900184	-0.0114271	-0.0105634308	1.01415788	1.02129914;
	211	-0.337645	-0.314883009	 -0.14509	-0.135532035	0.997677805	1.00518182;
	214	-0.446429	-0.415571344	-0.0465943	-0.0435895813	1.04309515	1.05053771;
	216	-0.217873	-0.203225477	0.0339329	0.0362442949	0.994164372	1.0007496;
	217	-0.320944	-0.301625972	-0.0279437	-0.0260797612	1.00146641	1.00870862;
	218	-0.0340511	-0.0320056447	0.00384804	0.00413716007	1.0283544	1.03582422;
	223	-0.438272	-0.407544716	-0.0228329	-0.0212030912	1.01882388	1.02557122;
	225	-0.794534	-0.743149437	-0.171423	-0.160065417	1.04946579	1.05712876;
	226	-0.808461	-0.748835067	-0.736597	-0.692685542	1.04937683	1.05607432;
	227	-0.0519243	-0.0484595742	0.0182756	0.0197120849	1.00147299	1.00898156;
	231	-0.0727577	-0.0677337946	0.0134455	0.014493234	1.01780078	1.0247968;
	234	-0.254546	-0.239299741	-0.0835037	-0.078275142	1.05080117	1.05901903;
	235	-0.182797	-0.171029313	-0.0340836	-0.0318013488	1.05952595	1.06733849;
	237	-0.453133	-0.420596845	-0.0537631	-0.0501724934	1.03916252	1.04635161;
	238	-0.249338	-0.233780423	0.0163522	0.0176024146	1.02730237	1.03489531;
	240	-0.527281	-0.493957671	-0.0987505	-0.0916969082	1.03452278	1.04226181;
	241	 -0.58498	-0.549642519	-0.097595	-0.0906663054	1.00518054	1.0122635;
	243	-0.276505	-0.257549824	0.0221243	0.023804443	1.01293117	1.02050251;
	244	  -0.6021	-0.561149739	-0.0383192	-0.0355855912	1.04680127	1.05420909;
	248	-0.346904	-0.322597509	-0.135103	-0.12581056	1.0502398	1.05789185;
	249	-0.270938	-0.251153906	-0.00935471	-0.00866686829	1.02964666	1.0376238;
	250	-0.284884	-0.263855759	0.0902664	0.0975188697	0.998035969	1.00505846;
	251	-0.109293	-0.102250076	-0.0361327	-0.0338580692	1.02324993	1.0307989;
	252	-0.0989129	-0.092280912	 0.017428	0.0187159833	1.01959088	1.02692647;
	253	-0.557297	-0.523073572	-0.0547298	-0.0509501318	1.0185671	1.02613933;
	254	-0.206324	-0.193881966	-0.0197485	-0.0182439419	1.02051491	1.02802621;
	255	-0.0983381	-0.0919081719	0.00193092	0.00206897962	1.01789341	1.0251703;
	258	 0.245379	0.262220343	0.0156464	0.0168403337	1.07404069	1.08145814;
	259	-0.340502	-0.318216851	0.0213319	0.0228438604	1.02733607	1.03517891;
	266	-0.337717	-0.314094338	-0.078478	-0.0734285199	1.04513328	1.05332797;
	268	-0.125954	-0.117498625	-0.112417	-0.104837485	0.993833116	1.00028122;
	272	-0.475932	-0.439790783	-0.0443171	-0.0414034484	1.01797861	1.02488102;
	273	  -0.2959	-0.274890482	-0.0362708	-0.033861866	1.03594088	1.04306003;
	277	-0.038405	-0.0356687298	-0.0238454	-0.0222577077	1.03592762	1.04312045;
	278	-0.0154781	-0.0144046835	-0.0477848	-0.0444846841	1.06532835	1.07375806;
	279	-0.113918	-0.106248645	0.0202568	0.0216801313	1.01553348	1.02275328;
	280	-0.453643	-0.42613322	-0.148647	-0.13776941	1.02821229	1.03516679;
	281	 -0.13277	-0.123099418	-0.00929998	-0.00866544683	1.00246563	1.01004211;
	283	-0.125427	-0.116970351	0.00192394	0.00206967376	1.01856507	1.0258545;
	284	-0.173244	-0.162114686	-0.0475085	-0.044458885	1.01245794	1.01963203;
	285	0.0164748	0.0175323056	-0.0475609	-0.044368391	1.05212777	1.05996508;
	286	  -0.3336	-0.312054223	 -0.21254	-0.198253022	1.05174777	1.0599033;
	287	 -0.36943	-0.346268007	0.0222854	0.023805081	1.02807086	1.03564211;
	288	-0.380526	-0.355852692	0.0269838	0.0290728794	1.03400228	1.04131569;
	289	-0.451131	-0.422137665	-0.100857	-0.0938123021	1.06586484	1.07309953;
	290	-0.0753089	-0.0707937271	-0.0381965	-0.0357305122	1.05585558	1.06381099;
	291	-0.164316	-0.151741901	-0.0030924	-0.00289235974	1.01872808	1.02651575;
	292	-0.0103196	-0.00969588634	-0.00519921	-0.00482610205	1.02529525	1.03261306;
	293	-0.468724	-0.439430538	-0.0237923	-0.0221326877	1.02555961	1.03276556;
	294	-3.334e-08	3.85646657e-08	0.00866225	0.00931621075	1.02402325	1.03138817;
	295	 -0.24136	-0.225470574	-0.0466429	-0.0432694601	1.03859736	1.04541414;
	296	-0.0396691	-0.0372075951	-0.00309895	-0.00290319931	1.00283838	1.010795;
	298	-0.143344	-0.133928219	-3.72876e-08	3.66509946e-08	0.993280427	1.00069399;
	300	-0.552138	-0.517470249	-0.172273	-0.161015032	1.05805561	1.06518357;
	301	-0.0310909	-0.0290481807	-0.00309971	-0.00290427652	0.993463389	1.00065024;
	302	-0.168712	-0.156537715	-0.0361482	-0.033935414	1.024778	1.0319805;
	303	-0.437378	-0.406164975	-0.124149	-0.115645934	0.982577504	0.989216242;
	304	-0.380448	-0.35389511	0.00480755	0.00519176542	0.991161116	0.997918934;
	308	-0.0062023	-0.0057895589	-0.00207797	-0.00193698653	1.03955402	1.04698853;
	309	-0.0726554	-0.0675479771	-0.0258074	-0.0240215409	1.02687097	1.03400883;
	310	 -0.13439	-0.125115344	-0.0466595	-0.0432632359	1.02601869	1.03348692;
	311	-0.0135051	-0.012604535	-3.99742e-08	3.8422135e-08	0.989999459	0.996703072;
	312	 0.168306	0.180300458	0.0250308	0.0268796342	1.00628373	1.01360702;
	313	-0.332344	-0.307324639	-0.0247238	-0.0231183245	1.0320306	1.03947883;
	315	-0.222459	-0.207802652	0.000965453	0.001032966	1.05745291	1.06562093;
	316	-0.365987	-0.340265302	-0.0247719	-0.023187176	1.0197229	1.02721625;
	324	-0.295169	-0.276424556	-0.0547654	-0.0513778066	1.02012964	1.02740568;
	325	-0.185835	-0.1735184	-0.0990724	-0.0929998993	1.02566695	1.03337241;
	326	-0.121464	-0.112527512	-0.204203	-0.191485732	1.03381255	1.04179777;
	328	-0.406981	-0.379311744	-0.0259866	-0.0240530036	1.01559645	1.02288459;
	329	-0.765702	-0.713312327	-0.0526505	-0.0489775189	1.0484587	1.05546566;
	334	-0.0763388	-0.0712478639	0.0268862	0.0290121453	1.03516033	1.04195173;
	335	-0.0311456	-0.0289419042	0.0288265	0.031100699	1.02518759	1.03240273;
	336	0.0552502	0.0592026084	0.0034522	0.00371021266	1.01937984	1.0263557;
	337	-0.140248	-0.130958442	0.0115923	0.0123765935	1.04360246	1.05033829;
	344	-0.118762	-0.111470159	0.0339132	0.0362264253	1.0020137	1.00826572;
	345	-0.242984	-0.225107519	0.0528027	0.0571912918	1.02081056	1.02769273;
	346	-0.135121	-0.126219747	0.00289649	0.00311672408	1.059528	1.06687086;
	347	0.0067713	0.00722583424	-0.00103593	-0.000963308729	1.03082704	1.0388424;
	348	-0.559627	-0.52150248	-0.0703669	-0.0655440735	1.04084728	1.04813206;
	351	-0.374197	-0.345610909	-0.0269412	-0.0249812332	1.0700412	1.07670732;
	352	-0.0597702	-0.0562278881	-0.0207618	-0.0192021449	1.05096133	1.05906098;
	354	-0.0258321	-0.0241191654	-0.0123954	-0.0115206179	1.02703082	1.03353822;
	355	-0.0310163	-0.0289994493	0.0183663	0.0196330429	1.03408201	1.04092699;
	356	-0.0623142	-0.0579463716	-0.0207175	-0.0192685032	1.01408794	1.02091542;
	358	-0.246291	-0.231780218	-0.104977	-0.0970888211	1.01447906	1.0216352;
	364	  1.24224	1.32203895	 0.378475	0.406272969	1.03185436	1.03843961;
	365	0.000961743	0.00103747171	0.00387493	0.00415804491	1.03696987	1.0443627;
	376	-0.562982	-0.521353296	0.00386036	0.00412345129	1.01970365	1.02631928;
	378	-0.283508	-0.266265535	0.000966614	0.00103611185	1.03414979	1.04148046;
	381	-0.544156	-0.508778782	-0.0754764	-0.0704757954	1.01261205	1.01935821;
	382	-0.178762	-0.166676911	-0.00618188	-0.00576725813	1.01005505	1.01802425;
	383	-0.454578	-0.424115044	-0.160002	-0.148635452	1.01800714	1.02566245;
	384	-0.208563	-0.194414022	-0.0402781	-0.0375631581	0.99655807	1.00348683;
	387	-0.0556506	-0.0519044822	0.0240878	0.0259505126	1.05586723	1.0631057;
...
];

%% generator data
%	bus	Pg	Qg	Qmax	Qmin	Vg	mBase	status	Pmax	Pmin	Pc1	Pc2	Qc1min	Qc1max	Qc2min	Qc2max	ramp_agc	ramp_10	ramp_30	ramp_q	apf
mpc.gen = [
	4	0	0	0	0	1.025	100	0	12	0	0	0	0	0	0	0	0	0	0	0	0;
	4	0	0	0	0	1.025	100	0	10	0	0	0	0	0	0	0	0	0	0	0	0;
	5	0	0	0	0	1.016	100	0	9.1	0	0	0	0	0	0	0	0	0	0	0	0;
	11	0.05	0	0	0	1.014	100	1	28	0	0	0	0	0	0	0	0	0	0	0	0;
	11	0	0	0	0	1.014	100	0	18	0	0	0	0	0	0	0	0	0	0	0	0;
	17	0	0	0	0	1.045	100	0	8.2	0	0	0	0	0	0	0	0	0	0	0	0;
	19	0	0	0	0	1.02	100	0	1.2	0	0	0	0	0	0	0	0	0	0	0	0;
	22	0	0	0	0	1.007	100	0	10	0	0	0	0	0	0	0	0	0	0	0	0;
	24	0	0	0	0	1.027	100	0	16.1	0	0	0	0	0	0	0	0	0	0	0	0;
	24	0	0	0	0	1.027	100	0	35.5	0	0	0	0	0	0	0	0	0	0	0	0;
	25	0.22	0	0	0	1.064	100	1	36	0	0	0	0	0	0	0	0	0	0	0	0;
	25	0	0	0	0	1.064	100	0	27.2	0	0	0	0	0	0	0	0	0	0	0	0;
	40	0	0	0	0	1.054	100	0	8	0	0	0	0	0	0	0	0	0	0	0	0;
	47	27.5665507	-12.3560804	9.5	-10	1.022	100	1	16	0	0	0	0	0	0	0	0	0	0	0	0;
	47	8.56	-12.3560804	9.5	-10	1.022	100	1	16	0	0	0	0	0	0	0	0	0	0	0	0;
	48	0	0	0	0	1.017	100	0	23	0	0	0	0	0	0	0	0	0	0	0	0;
	48	0	0	0	0	1.017	100	0	24	0	0	0	0	0	0	0	0	0	0	0	0;
	57	4.74	1.38164773	1	0.9	1.058	100	1	13	0	0	0	0	0	0	0	0	0	0	0	0;
	64	0	0	0	0	1.056	100	0	24	0	0	0	0	0	0	0	0	0	0	0	0;
	64	0	0	0	0	1.056	100	0	27.6	0	0	0	0	0	0	0	0	0	0	0	0;
	69	0	0	0	0	1.045	100	0	30.04	0	0	0	0	0	0	0	0	0	0	0	0;
	70	0	0	0	0	1.026	100	0	23	0	0	0	0	0	0	0	0	0	0	0	0;
	85	0	0	0	0	1.042	100	0	6.68	0	0	0	0	0	0	0	0	0	0	0	0;
	86	0	0	0	0	1.019	100	0	9.2	0	0	0	0	0	0	0	0	0	0	0	0;
	102	17.16	-0.0592383212	21	-9	1.033	100	1	46	0	0	0	0	0	0	0	0	0	0	0	0;
	122	6.17	2.64653219	5	-2	1.026	100	1	12	0	0	0	0	0	0	0	0	0	0	0	0;
	124	0	0	0	0	1.032	100	0	9	0	0	0	0	0	0	0	0	0	0	0	0;
	125	5.16	0	0	0	1.026	100	1	26	0	0	0	0	0	0	0	0	0	0	0	0;
	125	1.16	0	0	0	1.026	100	1	12	0	0	0	0	0	0	0	0	0	0	0	0;
	132	12.3	-0.818018983	3	-3	1.061	100	1	17	0	0	0	0	0	0	0	0	0	0	0	0;
	132	0	0	1	-1	1.061	100	0	4	0	0	0	0	0	0	0	0	0	0	0	0;
	132	0	0	3	-3	1.061	100	0	14	0	0	0	0	0	0	0	0	0	0	0	0;
	132	0	0	3	-3	1.061	100	0	14	0	0	0	0	0	0	0	0	0	0	0	0;
	137	0	0	0.8	-0.8	1.021	100	0	18	0	0	0	0	0	0	0	0	0	0	0	0;
	137	7.21	-2.02071122	0.8	-0.8	1.021	100	1	18	0	0	0	0	0	0	0	0	0	0	0	0;
	155	0	0	1.76	-1.76	1.035	100	0	5.3	0	0	0	0	0	0	0	0	0	0	0	0;
	158	8.29	3.90306353	10	-13	0.959	100	1	17.9	0	0	0	0	0	0	0	0	0	0	0	0;
	158	8.29	3.90306353	10	-13	0.959	100	1	17.9	0	0	0	0	0	0	0	0	0	0	0	0;
	176	0	0	10	-4	1.1	100	0	30	0	0	0	0	0	0	0	0	0	0	0	0;
	187	0	0	8	-8	1.075	100	0	11	0	0	0	0	0	0	0	0	0	0	0	0;
	187	0	0	2	-2	1.075	100	0	11	0	0	0	0	0	0	0	0	0	0	0	0;
	190	0	0	14	-14	0.951	100	0	30	0	0	0	0	0	0	0	0	0	0	0	0;
	192	9.17	0	0	0	1.058	100	1	23.5	0	0	0	0	0	0	0	0	0	0	0	0;
	194	0.42	3.20767078	1	0.9	1.056	100	1	15	0	0	0	0	0	0	0	0	0	0	0	0;
	194	0.42	3.20767078	1	0.9	1.056	100	1	15	0	0	0	0	0	0	0	0	0	0	0	0;
	217	0	0	0	0	1.009	100	0	11.94	0	0	0	0	0	0	0	0	0	0	0	0;
	224	0	0	2	0	1.099	100	0	6	0	0	0	0	0	0	0	0	0	0	0	0;
	227	0	0	0	0	1.012	100	0	7.5	0	0	0	0	0	0	0	0	0	0	0	0;
	236	0	0	0	0	1.033	100	0	33.5	0	0	0	0	0	0	0	0	0	0	0	0;
	236	0	0	0	0	1.033	100	0	24.3	0	0	0	0	0	0	0	0	0	0	0	0;
	238	0	0	0	0	1.033	100	0	8	0	0	0	0	0	0	0	0	0	0	0	0;
	238	1.01	0	0	0	1.033	100	1	36	0	0	0	0	0	0	0	0	0	0	0	0;
	246	0	0	2	0	1.02	100	0	1	0	0	0	0	0	0	0	0	0	0	0	0;
	246	0	0	10	-10	1.02	100	0	31	0	0	0	0	0	0	0	0	0	0	0	0;
	246	0	0	10	-10	1.02	100	0	31	0	0	0	0	0	0	0	0	0	0	0	0;
	246	0	0	10	-10	1.02	100	0	31	0	0	0	0	0	0	0	0	0	0	0	0;
	256	7.15	-4.93939259	10	-10	1.047	100	1	26	0	0	0	0	0	0	0	0	0	0	0	0;
	256	12.15	-4.93939259	10	-10	1.047	100	1	26	0	0	0	0	0	0	0	0	0	0	0	0;
	258	25.37	1.62647413	1	0.9	1.078	100	1	30	0	0	0	0	0	0	0	0	0	0	0	0;
	261	0	0	4	-4	1.049	100	0	8	0	0	0	0	0	0	0	0	0	0	0	0;
	269	0	0	0	0	1.006	100	0	12.6	0	0	0	0	0	0	0	0	0	0	0	0;
	282	0	0	6.1	-6.2	1.02	100	0	11.6	0	0	0	0	0	0	0	0	0	0	0	0;
	295	0	0	0	0	1.044	100	0	25.3	0	0	0	0	0	0	0	0	0	0	0	0;
	296	3.05	0	0	0	1.008	100	1	12	0	0	0	0	0	0	0	0	0	0	0	0;
	305	0	0	9	-9	1.042	100	0	15	0	0	0	0	0	0	0	0	0	0	0	0;
	312	4.2	0	0	0	1.011	100	1	25.8	0	0	0	0	0	0	0	0	0	0	0	0;
	312	15.2	0	0	0	1.011	100	1	49.6	0	0	0	0	0	0	0	0	0	0	0	0;
	317	0	0	0	0	1.058	100	0	0	-7	0	0	0	0	0	0	0	0	0	0	0;
	317	0	0	0	0	1.058	100	0	0	-7	0	0	0	0	0	0	0	0	0	0	0;
	319	0	0	0.1	-0.1	1.038	100	0	10.8	0	0	0	0	0	0	0	0	0	0	0	0;
	325	0	0	4	-4	1.03	100	0	11	0	0	0	0	0	0	0	0	0	0	0	0;
	332	0	0	13	-9	1.038	100	0	25	0	0	0	0	0	0	0	0	0	0	0	0;
	333	0	0	13	-9	1.048	100	0	25	0	0	0	0	0	0	0	0	0	0	0	0;
	336	6.4	0.356758269	5	-6	1.023	100	1	13	0	0	0	0	0	0	0	0	0	0	0	0;
	338	0	0	10	-10	1.076	100	0	21	0	0	0	0	0	0	0	0	0	0	0	0;
	338	0	0	0.1	-0.1	1.076	100	0	2	0	0	0	0	0	0	0	0	0	0	0	0;
	345	0	0	0	0	1.027	100	0	2.3	0	0	0	0	0	0	0	0	0	0	0	0;
	345	0	0	0	0	1.027	100	0	19.5	0	0	0	0	0	0	0	0	0	0	0	0;
	348	0	0	0	0	1.047	100	0	22	0	0	0	0	0	0	0	0	0	0	0	0;
	357	0	0	0	0	0.996	100	0	12	0	0	0	0	0	0	0	0	0	0	0	0;
	357	0	0	0	0	0.996	100	0	12	0	0	0	0	0	0	0	0	0	0	0	0;
	364	125.15	39.2862954	59	-26	1.035	100	1	130	0	0	0	0	0	0	0	0	0	0	0	0;
	391	0	0	0	0	1.03	100	0	2.7	0	0	0	0	0	0	0	0	0	0	0	0;
	409	0	0	5	-5	1.034	100	0	18	0	0	0	0	0	0	0	0	0	0	0	0;
	411	0	0	0	0	1.027	100	0	10	0	0	0	0	0	0	0	0	0	0	0	0;
	411	0	0	0	0	1.027	100	0	11.5	0	0	0	0	0	0	0	0	0	0	0	0;
	431	0	0	0	0	1.049	100	0	12	0	0	0	0	0	0	0	0	0	0	0	0;
	440	0	0	10.96	-11.99	1.023	100	0	34.25	0	0	0	0	0	0	0	0	0	0	0	0;
	447	18.4	0.741050552	8	-9	0.997	100	1	25	0	0	0	0	0	0	0	0	0	0	0	0;
	462	0	0	0	0	1.046	100	0	2.4	0	0	0	0	0	0	0	0	0	0	0	0;
	462	0	0	0	0	1.046	100	0	16	0	0	0	0	0	0	0	0	0	0	0	0;
	464	3.68	2.6872966	6	-3	1.176	100	1	27	1	0	0	0	0	0	0	0	0	0	0	0;
	464	3.68	2.6872966	6	-3	1.176	100	1	27	1	0	0	0	0	0	0	0	0	0	0	0;
	466	0	0	19	-10	1.035	100	0	48	1	0	0	0	0	0	0	0	0	0	0	0;
	470	0	0	6	-6	1.045	100	0	10	0	0	0	0	0	0	0	0	0	0	0	0;
	470	0	0	5.4	-5.4	1.045	100	0	9	0	0	0	0	0	0	0	0	0	0	0	0;
	479	0	0	17	-16	1.022	100	0	27	0	0	0	0	0	0	0	0	0	0	0	0;
	479	0	0	17	-16	1.022	100	0	27	0	0	0	0	0	0	0	0	0	0	0	0;
	479	0	0	17	-16	1.022	100	0	27	0	0	0	0	0	0	0	0	0	0	0	0;
	491	0	0	8	-17	1.054	100	0	23.4	0	0	0	0	0	0	0	0	0	0	0	0;
	508	0	0	2	-2	1.027	100	0	4	0	0	0	0	0	0	0	0	0	0	0	0;
	519	0	0	0	0	0.999	100	0	10	0	0	0	0	0	0	0	0	0	0	0	0;
	520	0	0	0	0	1.025	100	0	12	0	0	0	0	0	0	0	0	0	0	0	0;
	530	1.92	0.905141509	4.8	-4.8	1.039	100	1	8	0	0	0	0	0	0	0	0	0	0	0	0;
	530	1.92	0.905141509	4.8	-4.8	1.039	100	1	8	0	0	0	0	0	0	0	0	0	0	0	0;
	530	1.92	0.905141509	4.8	-4.8	1.039	100	1	8	0	0	0	0	0	0	0	0	0	0	0	0;
	537	0	0	0	0	1.028	100	0	12	0	0	0	0	0	0	0	0	0	0	0	0;
	537	1.93	0	0	0	1.028	100	1	24	0	0	0	0	0	0	0	0	0	0	0	0;
	546	0	3.8948286	2	1.9	1.025	100	1	9	0	0	0	0	0	0	0	0	0	0	0	0;
	548	0	0	2	0	1.04	100	0	12	0	0	0	0	0	0	0	0	0	0	0	0;
	570	0	0	0	0	0.997	100	0	12	0	0	0	0	0	0	0	0	0	0	0	0;
	570	0	0	0	0	0.997	100	0	30	0	0	0	0	0	0	0	0	0	0	0	0;
	570	0	0	0	0	0.997	100	0	11.5	0	0	0	0	0	0	0	0	0	0	0	0;
	583	2.96	6.14320842	7	-4	1.009	100	1	16	0	0	0	0	0	0	0	0	0	0	0	0;
	585	0	0	0	0	0.986	100	0	9	0	0	0	0	0	0	0	0	0	0	0	0;
	586	0	0	5.7	-5.7	1.025	100	0	9.5	0	0	0	0	0	0	0	0	0	0	0	0;
	589	0	0	0.1	-0.1	1.018	100	0	1	0	0	0	0	0	0	0	0	0	0	0	0;
	593	0	0	10	-10	1.03	100	0	21	0	0	0	0	0	0	0	0	0	0	0	0;
	600	0	0	1	-1	1.03	100	0	6.1	0	0	0	0	0	0	0	0	0	0	0	0;
	610	39.05	-5.28048946	45	-45	1.021	100	1	45	0	0	0	0	0	0	0	0	0	0	0	0;
	610	0	0	45	-45	1.021	100	0	45	0	0	0	0	0	0	0	0	0	0	0	0;
	612	0	0	0	0	1	100	0	12	0	0	0	0	0	0	0	0	0	0	0	0;
	612	0	0	0	0	1	100	0	12	0	0	0	0	0	0	0	0	0	0	0	0;
	612	0	0	0	0	1	100	0	12	0	0	0	0	0	0	0	0	0	0	0	0;
	613	0	0	0	0	0.994	100	0	35	0	0	0	0	0	0	0	0	0	0	0	0;
	613	0	0	0	0	0.994	100	0	11.5	0	0	0	0	0	0	0	0	0	0	0	0;
	624	-4.11	-5.1867361	8.3	-8.3	1.047	100	1	8.3	-8.3	0	0	0	0	0	0	0	0	0	0	0;
	633	0	0	4	-4	1.028	100	0	7.3	0	0	0	0	0	0	0	0	0	0	0	0;
	636	0	0	7	0	0.999	100	0	15	0	0	0	0	0	0	0	0	0	0	0	0;
	636	1	4.67332346	7	0	0.999	100	1	15	0	0	0	0	0	0	0	0	0	0	0	0;
	646	197.89	5.72747719	80	-75	1.104	100	1	239	0	0	0	0	0	0	0	0	0	0	0	0;
	657	0	0	7	0	1.065	100	0	7	0	0	0	0	0	0	0	0	0	0	0	0;
	675	0	0	0	0	1.026	100	0	12	0	0	0	0	0	0	0	0	0	0	0	0;
	675	0.14	0	0	0	1.026	100	1	12	0	0	0	0	0	0	0	0	0	0	0	0;
	676	0	0	0	0	1.025	100	0	7.5	0	0	0	0	0	0	0	0	0	0	0	0;
	676	0	0	0	0	1.025	100	0	24	0	0	0	0	0	0	0	0	0	0	0	0;
	684	0	0	0	0	0.996	100	0	6.6	0	0	0	0	0	0	0	0	0	0	0	0;
	685	0	0	0	0	1.05	100	0	12	0	0	0	0	0	0	0	0	0	0	0	0;
	689	2.31	1.27817408	6	-5	0.966	100	1	9	0	0	0	0	0	0	0	0	0	0	0	0;
	689	2.31	1.27817408	6	-5	0.966	100	1	9	0	0	0	0	0	0	0	0	0	0	0	0;
	689	0	0	8	-5	0.966	100	0	11	0	0	0	0	0	0	0	0	0	0	0	0;
	689	2.31	2.41966028	8	-5	0.966	100	1	11	0	0	0	0	0	0	0	0	0	0	0	0;
	700	0	0	0	0	1.033	100	0	32.35	0	0	0	0	0	0	0	0	0	0	0	0;
	700	0	0	0	0	1.033	100	0	12	0	0	0	0	0	0	0	0	0	0	0	0;
	700	0	0	0	0	1.033	100	0	21	0	0	0	0	0	0	0	0	0	0	0	0;
	704	29.21	-6.22276836	15	-17	1.015	100	1	37	0	0	0	0	0	0	0	0	0	0	0	0;
	704	27.22	-6.22276836	15	-17	1.015	100	1	37	0	0	0	0	0	0	0	0	0	0	0	0;
	703	26.46	-6.64735574	15	-15	1.014	100	1	37	0	0	0	0	0	0	0	0	0	0	0	0;
	703	28.46	-6.64735574	15	-15	1.014	100	1	37	0	0	0	0	0	0	0	0	0	0	0	0;
	702	28.46	-6.62953515	15	-17	1.014	100	1	37	0	0	0	0	0	0	0	0	0	0	0	0;
	702	28.46	-6.62953515	15	-17	1.014	100	1	37	0	0	0	0	0	0	0	0	0	0	0	0;
	710	0	0	2	-2	0.963	100	0	4	0	0	0	0	0	0	0	0	0	0	0	0;
	710	0	0	2.5	-2.5	0.963	100	0	4	0	0	0	0	0	0	0	0	0	0	0	0;
	710	1	9.25029984	3	-3	0.963	100	1	5.7	0	0	0	0	0	0	0	0	0	0	0	0;
	710	0	0	6	-5	0.963	100	0	8.5	0	0	0	0	0	0	0	0	0	0	0	0;
	737	0	0	0	0	1.021	100	0	19.5	0	0	0	0	0	0	0	0	0	0	0	0;
	738	26.22	-3.60996942	18	-18	0.995	100	1	39	0	0	0	0	0	0	0	0	0	0	0	0;
	739	0.21	0	0	0	0.995	100	1	11.5	0	0	0	0	0	0	0	0	0	0	0	0;
	739	9.21	0	0	0	0.995	100	1	32	0	0	0	0	0	0	0	0	0	0	0	0;
	741	0	0	0	0	1.029	100	0	12	0	0	0	0	0	0	0	0	0	0	0	0;
	741	0	0	0	0	1.029	100	0	32	0	0	0	0	0	0	0	0	0	0	0	0;
	742	0	0	0.1	-0.1	1.034	100	0	5	0	0	0	0	0	0	0	0	0	0	0	0;
	749	0	0	3.97	-3.7	1.008	100	0	6.7	0	0	0	0	0	0	0	0	0	0	0	0;
	749	0	0	3.54	-3	1.008	100	0	5.6	0	0	0	0	0	0	0	0	0	0	0	0;
	750	5.08	-5.47629989	15	-15	1.002	100	1	26.6	0	0	0	0	0	0	0	0	0	0	0	0;
	751	1.88	5.31788791	2	-2	1.014	100	1	7	1	0	0	0	0	0	0	0	0	0	0	0;
	756	0	0	3	-3	1.02	100	0	5	-5	0	0	0	0	0	0	0	0	0	0	0;
	763	0	0	8	-8	1.05	100	0	23.5	0	0	0	0	0	0	0	0	0	0	0	0;
	765	0	0	0	0	1.037	100	0	6	0	0	0	0	0	0	0	0	0	0	0	0;
	766	0	0	0	0	1.036	100	0	6	0	0	0	0	0	0	0	0	0	0	0	0;
	765	16.81	-6.2900118	10	-6.42	1.037	100	1	37.5	0	0	0	0	0	0	0	0	0	0	0	0;
	766	15.91	-2.44806504	10	-6	1.036	100	1	37.5	0	0	0	0	0	0	0	0	0	0	0	0;
	767	0	0	0.06	-0.06	0.586	100	0	0.6	0	0	0	0	0	0	0	0	0	0	0	0;
	767	0	0	2.61	-2.61	0.586	100	0	26.1	0	0	0	0	0	0	0	0	0	0	0	0;
	767	0	0	0.16	-0.16	0.586	100	0	1.6	0	0	0	0	0	0	0	0	0	0	0	0;
	767	0	0	0.11	-0.11	0.586	100	0	1.1	0	0	0	0	0	0	0	0	0	0	0	0;
	771	0	0	0	0	1.011	100	0	37.5	0	0	0	0	0	0	0	0	0	0	0	0;
	771	1.22	0	0	0	1.011	100	1	34	0	0	0	0	0	0	0	0	0	0	0	0;
	791	0	0	26	-26	1.008	100	0	8	0	0	0	0	0	0	0	0	0	0	0	0;
	791	0	0	26	-26	1.008	100	0	15	0	0	0	0	0	0	0	0	0	0	0	0;
	792	0	0	26	-26	1.016	100	0	19	0	0	0	0	0	0	0	0	0	0	0	0;
	806	23.16	-6.98066701	15	-17	1.014	100	1	31	0	0	0	0	0	0	0	0	0	0	0	0;
	806	25.15	-6.98066701	15	-17	1.014	100	1	31	0	0	0	0	0	0	0	0	0	0	0	0;
	807	25.51	-4.72295772	15	-17	1.018	100	1	31	0	0	0	0	0	0	0	0	0	0	0	0;
	807	25.51	-4.72295772	15	-17	1.018	100	1	31	0	0	0	0	0	0	0	0	0	0	0	0;
	808	25.51	-6.00440059	15	-17	1.016	100	1	31	0	0	0	0	0	0	0	0	0	0	0	0;
	808	24.51	-6.00440059	15	-17	1.016	100	1	31	0	0	0	0	0	0	0	0	0	0	0	0;
	812	35.18	0	0	0	1.017	100	1	40.8	0	0	0	0	0	0	0	0	0	0	0	0;
	820	22.51	-3.29361539	6	-9	1.022	100	1	32	1	0	0	0	0	0	0	0	0	0	0	0;
	820	0	0	6	-9	1.022	100	0	32	1	0	0	0	0	0	0	0	0	0	0	0;
	821	23.41	-0.953900655	6	-9	1.022	100	1	32	1	0	0	0	0	0	0	0	0	0	0	0;
	821	23.41	-0.953900655	6	-9	1.022	100	1	32	1	0	0	0	0	0	0	0	0	0	0	0;
	821	20.41	-0.953900655	6	-9	1.022	100	1	32	1	0	0	0	0	0	0	0	0	0	0	0;
	821	22.41	-0.953900655	6	-9	1.022	100	1	32	1	0	0	0	0	0	0	0	0	0	0	0;
	831	0	0	3	-3	1.044	100	0	13	0	0	0	0	0	0	0	0	0	0	0	0;
	831	0	0	3	-3	1.044	100	0	7	0	0	0	0	0	0	0	0	0	0	0	0;
	834	0	0	0	0	1.051	100	0	2.4	0	0	0	0	0	0	0	0	0	0	0	0;
	835	7.42	0.163983367	10	-10	1.047	100	1	27	0	0	0	0	0	0	0	0	0	0	0	0;
	836	0	0	10	-10	0.981	100	0	20	0	0	0	0	0	0	0	0	0	0	0	0;
	838	0	0	3.14	-3.43	1.077	100	0	9.8	0	0	0	0	0	0	0	0	0	0	0	0;
...
];

%% branch data
%	fbus	tbus	r	x	b	rateA	rateB	rateC	ratio	angle	status	angmin	angmax	Pf	Qf	Pt	Qt
mpc.branch = [
	4647	1	0.005726	0.010482	0	0	0	0	1	0	1	0	0	-1.0000	1.0000	1.0001	-0.9998;
	5244	1	0.01284	0.025679	0	0	0	0	1	0	1	0	0	1.0004	-0.9993	-1.0001	0.9998;
	1682	2	0.005799	0.010615	0.0075	0	0	0	1	0	1	0	0	0.0000	-0.7886	0.0000	0.0000;
	1673	3	0.134039	0.309398	0.0035	0	0	0	1	0	1	0	0	16.2834	1.6003	-15.9470	-1.1889;
	2303	3	0.049131	0.133283	0.0015	0	0	0	1	0	1	0	0	-1.1432	2.4682	1.1470	-2.6111;
	700	4	0.025926	0.109136	0.0002	0	0	0	1	0	1	0	0	12.4031	4.4192	-12.3609	-4.2626;
	3939	4	0.05	0.126914	0.0006	0	0	0	1	0	1	0	0	-3.7472	3.4528	3.7596	-3.4844;
	5046	4	0.02321	0.097407	0.0016	0	0	0	1	0	1	0	0	41.3762	-3.5314	-40.9987	4.9470;
	4413	5	0.040564	0.113631	0.0013	0	0	0	1	0	1	0	0	12.9666	0.9533	-12.9000	-0.9000;
	2779	6	0.006047	0.020912	0.0222	0	0	0	1	0	1	0	0	13.0106	2.9760	-13.0000	-5.3000;
	2780	7	0.012472	0.032099	0.0061	0	0	0	1	0	1	0	0	2.3006	-0.4689	-2.3000	-0.2000;
	2466	8	0.002607	0.017462	0.0324	540	540	540	1	0	1	0	0	15.8061	-3.7756	-15.8000	0.3000;
	470	9	0.053893	0.14258	0.0017	0	0	0	1	0	1	0	0	15.0103	0.1060	-14.9000	0.0000;
	11	10	0.000247	0.001235	0.0005	0	0	0	1	0	1	0	0	0.0000	-0.0436	0.0000	-0.0077;
	11	10	0.000247	0.001235	0.0002	0	0	0	1	0	1	0	0	0.0000	-0.0282	-0.0000	0.0077;
	30	11	0.039753	0.100988	0.0047	0	0	0	1	0	1	0	0	-3.8461	4.1117	3.8591	-4.5626;
	2929	11	0.037654	0.096173	0.001	0	0	0	1	0	1	0	0	37.5115	1.4444	-37.0091	-0.2655;
	2181	12	0.014613	0.060721	0.0008	0	0	0	1	0	1	0	0	7.7999	2.8770	-7.7902	-2.9190;
	4017	12	0.034064	0.121139	0.0015	0	0	0	1	0	1	0	0	7.7333	3.0665	-7.7105	-3.1410;
	4019	12	0.000242	0.000442	0.0004	0	0	0	1	0	1	0	0	-15.5000	-6.1000	15.5007	6.0600;
	115	13	2.1e-05	0.000125	0.1386	737	737	737	1	0	1	0	0	0.0000	0.0000	0.0000	-15.6064;
	2337	13	0.000145	0.001877	0.0635	2487	2487	2487	1	0	1	0	0	-295.5841	-69.6320	295.7026	64.0264;
	4577	13	0.000319	0.003234	0.0838	1841	1841	1841	1	0	1	0	0	295.9525	25.8960	-295.7026	-32.8137;
	116	13	2.1e-05	0.000125	0.1386	737	737	737	1	0	1	0	0	0.0000	0.0000	0.0000	-15.6064;
	1225	14	0.04	0.134198	0.0274	0	0	0	1	0	1	0	0	-51.4086	-7.0359	52.4242	7.4740;
	2874	14	0.012222	0.052346	0.0026	0	0	0	1	0	1	0	0	-41.3036	0.6939	41.4924	-0.1736;
	4595	14	0.007284	0.045432	0.0024	0	0	0	1	0	1	0	0	122.4417	5.3045	-121.4770	0.4426;
	4955	14	0.059963	0.154222	0.0236	0	0	0	1	0	1	0	0	-34.6798	-6.4852	35.3801	5.7286;
	5230	14	0.018025	0.110988	0.0073	0	0	0	1	0	1	0	0	-10.4243	-7.2551	10.4499	6.6065;
	2874	14	0.012222	0.052593	0.0032	0	0	0	1	0	1	0	0	-41.1204	0.6142	41.3076	-0.1639;
...